/*--------------------------------*- C++ -*----------------------------------*\
  =========                 |
  \\      /  F ield         | OpenFOAM: The Open Source CFD Toolbox
   \\    /   O peration     | Website:  https://openfoam.org
    \\  /    A nd           | Version:  6
     \\/     M anipulation  |
\*---------------------------------------------------------------------------*/
FoamFile
{
    version     2.0;
    format      ascii;
    class       volScalarField;
    object      p;
}
// * * * * * * * * * * * * * * * * * * * * * * * * * * * * * * * * * * * * * //

dimensions      [0 2 -2 0 0 0 0];

internalField   uniform 0;

boundaryField
{
	back
	{
		type            fixedValue;
		value		uniform 0;
	}

	front
	{
		type            fixedValue;
		value		uniform 0;
	}

	sides
	{
		type            fixedValue;
		value		uniform 0;
	}
	
	top
	{
		type		zeroGradient;
	}

	bottom
	{
		type		zeroGradient;

	}

	body
	{
		type		zeroGradient;
	}

	inlet
	{
		type		zeroGradient;
	}
	
	/*outlet
	{
		type		fixedValue;
		value		uniform 0;
	}*/

}

// ************************************************************************* //
